@<TRIPOS>MOLECULE
BMA.pdb
 11 11 0 0 0
SMALL
GASTEIGER

@<TRIPOS>ATOM
      1  C1       -32.7170  -42.6850  -40.9470 C.3  2249  BMA2249     0.1777
      2  C2       -31.3740  -43.1650  -40.4000 C.3  2249  BMA2249     0.2141
      3  C3       -30.6430  -43.8970  -41.5520 C.3  2249  BMA2249     0.2173
      4  C4       -31.5740  -44.9960  -42.1280 C.3  2249  BMA2249     0.2142
      5  C5       -33.0500  -44.5670  -42.3520 C.3  2249  BMA2249     0.1810
      6  C6       -33.9130  -45.8120  -42.4870 C.3  2249  BMA2249     0.2141
      7  O2       -31.5860  -44.0790  -39.3160 O.3  2249  BMA2249    -0.2176
      8  O3       -29.4060  -44.5430  -41.0760 O.3  2249  BMA2249    -0.2175
      9  O4       -31.0420  -45.3880  -43.3770 O.3  2249  BMA2249    -0.2176
     10  O5       -33.5630  -43.7980  -41.2370 O.3  2249  BMA2249    -0.3481
     11  O6       -34.4230  -45.8420  -43.8350 O.3  2249  BMA2249    -0.2176
@<TRIPOS>BOND
     1    11     6    1
     2     9     4    1
     3     6     5    1
     4     5     4    1
     5     5    10    1
     6     4     3    1
     7     3     8    1
     8     3     2    1
     9    10     1    1
    10     1     2    1
    11     2     7    1
