@<TRIPOS>MOLECULE
GAL.pdb
 11 11 0 0 0
SMALL
GASTEIGER

@<TRIPOS>ATOM
      1  C1       -38.3910  -47.9510  -47.8670 C.3  2254  GAL2254     0.1777
      2  C2       -39.6950  -47.7130  -47.0630 C.3  2254  GAL2254     0.2141
      3  C3       -40.8050  -47.1190  -47.9490 C.3  2254  GAL2254     0.2173
      4  C4       -40.3170  -45.9360  -48.8390 C.3  2254  GAL2254     0.2142
      5  C5       -39.0610  -46.3870  -49.6000 C.3  2254  GAL2254     0.1810
      6  C6       -38.4710  -45.2960  -50.4970 C.3  2254  GAL2254     0.2141
      7  O2       -40.1530  -48.9530  -46.5470 O.3  2254  GAL2254    -0.2176
      8  O3       -41.9080  -46.6900  -47.1570 O.3  2254  GAL2254    -0.2175
      9  O4       -40.0050  -44.7710  -48.0620 O.3  2254  GAL2254    -0.2176
     10  O5       -38.0300  -46.7900  -48.6540 O.3  2254  GAL2254    -0.3481
     11  O6       -38.1050  -45.8620  -51.7880 O.3  2254  GAL2254    -0.2176
@<TRIPOS>BOND
     1    11     6    1
     2     6     5    1
     3     5     4    1
     4     5    10    1
     5     4     9    1
     6     4     3    1
     7    10     1    1
     8     3     8    1
     9     3     2    1
    10     1     2    1
    11     2     7    1
