@<TRIPOS>MOLECULE
MAN.pdb
 11 11 0 0 0
SMALL
GASTEIGER

@<TRIPOS>ATOM
      1  C1       -34.4590  -47.0740  -44.5370 C.3  2250  MAN2250     0.1777
      2  C2       -33.0910  -47.8360  -44.5540 C.3  2250  MAN2250     0.2141
      3  C3       -32.0840  -47.3510  -45.6710 C.3  2250  MAN2250     0.2173
      4  C4       -32.7640  -46.9120  -46.9980 C.3  2250  MAN2250     0.2142
      5  C5       -34.0510  -46.1110  -46.7220 C.3  2250  MAN2250     0.1810
      6  C6       -34.8570  -45.7470  -47.9680 C.3  2250  MAN2250     0.2141
      7  O2       -33.2640  -49.3010  -44.5970 O.3  2250  MAN2250    -0.2176
      8  O3       -31.1360  -48.3870  -45.9560 O.3  2250  MAN2250    -0.2175
      9  O4       -31.8550  -46.1330  -47.7660 O.3  2250  MAN2250    -0.2176
     10  O5       -34.9320  -46.8900  -45.8710 O.3  2250  MAN2250    -0.3481
     11  O6       -34.1650  -44.8480  -48.8320 O.3  2250  MAN2250    -0.2176
@<TRIPOS>BOND
     1    11     6    1
     2     6     5    1
     3     9     4    1
     4     4     5    1
     5     4     3    1
     6     5    10    1
     7     8     3    1
     8    10     1    1
     9     3     2    1
    10     7     2    1
    11     2     1    1
