@<TRIPOS>MOLECULE
NAG.pdb
 14 14 0 0 0
SMALL
GASTEIGER

@<TRIPOS>ATOM
      1  C1       -37.1390  -41.9450  -32.0190 C.3  2247  NAG2247     0.1665
      2  C2       -37.3170  -43.0620  -33.0160 C.3  2247  NAG2247     0.1576
      3  C3       -36.0990  -43.3150  -33.9040 C.3  2247  NAG2247     0.2069
      4  C4       -35.2340  -42.0370  -34.1120 C.3  2247  NAG2247     0.2134
      5  C5       -34.9860  -41.2320  -32.7960 C.3  2247  NAG2247     0.1809
      6  C6       -35.3260  -39.7480  -32.8930 C.3  2247  NAG2247     0.2141
      7  C7       -38.9350  -44.6280  -32.4170 C.2  2247  NAG2247     0.2420
      8  C8       -39.1860  -45.8290  -33.3100 C.3  2247  NAG2247     0.0964
      9  N2       -37.6790  -44.2540  -32.3010 N.am 2247  NAG2247    -0.2019
     10  O3       -36.5870  -43.7480  -35.1690 O.3  2247  NAG2247    -0.2184
     11  O4       -33.9620  -42.4010  -34.7270 O.3  2247  NAG2247    -0.2176
     12  O5       -35.7540  -41.7880  -31.6960 O.3  2247  NAG2247    -0.3489
     13  O6       -36.6790  -39.5390  -33.2820 O.3  2247  NAG2247    -0.2176
     14  O7       -39.8700  -43.9920  -31.9200 O.2  2247  NAG2247    -0.2733
@<TRIPOS>BOND
     1    10     3    1
     2    11     4    1
     3     4     3    1
     4     4     5    1
     5     3     2    1
     6     8     7    1
     7    13     6    1
     8     2     9    1
     9     2     1    1
    10     6     5    1
    11     5    12    1
    12     7     9   am
    13     7    14    2
    14     1    12    1
