@<TRIPOS>MOLECULE
NDG.pdb
 14 14 0 0 0
SMALL
GASTEIGER

@<TRIPOS>ATOM
      1  C1       -33.8860  -42.1990  -36.1010 C.3  2248  NDG2248     0.1665
      2  C2       -34.5770  -43.3400  -36.8670 C.3  2248  NDG2248     0.1576
      3  C3       -34.2290  -43.2900  -38.3590 C.3  2248  NDG2248     0.2069
      4  C4       -33.6450  -41.9220  -38.7040 C.3  2248  NDG2248     0.2134
      5  C5       -32.4040  -41.5830  -37.8580 C.3  2248  NDG2248     0.1809
      6  C6       -32.2880  -40.1000  -37.7500 C.3  2248  NDG2248     0.2141
      7  C7       -32.8670  -44.8160  -36.0470 C.2  2248  NDG2248     0.2420
      8  C8       -32.5160  -45.0490  -34.5890 C.3  2248  NDG2248     0.0964
      9  O        -32.5180  -42.1190  -36.5060 O.3  2248  NDG2248    -0.3489
     10  O3       -35.3930  -43.5520  -39.1520 O.3  2248  NDG2248    -0.2184
     11  O4       -33.3690  -41.7540  -40.1270 O.3  2248  NDG2248    -0.2176
     12  O6       -31.3570  -39.5690  -38.6810 O.3  2248  NDG2248    -0.2176
     13  O7       -31.9760  -44.7990  -36.9130 O.2  2248  NDG2248    -0.2733
     14  N2       -34.1530  -44.6130  -36.3220 N.am 2248  NDG2248    -0.2019
@<TRIPOS>BOND
     1    11     4    1
     2    10     3    1
     3     4     3    1
     4     4     5    1
     5    12     6    1
     6     3     2    1
     7     5     6    1
     8     5     9    1
     9    13     7    2
    10     2    14    1
    11     2     1    1
    12     9     1    1
    13    14     7   am
    14     7     8    1
