@<TRIPOS>MOLECULE
SIA.pdb
 20 20 0 0 0
SMALL
GASTEIGER

@<TRIPOS>ATOM
      1  C1       -28.2470  -31.1720  -43.7660 C.2  2255  SIA2255     0.3914
      2  C2       -27.3640  -31.6390  -42.5670 C.3  2255  SIA2255     0.2203
      3  C3       -26.7620  -30.4110  -41.8190 C.3  2255  SIA2255     0.0760
      4  C4       -27.7580  -29.6510  -40.9060 C.3  2255  SIA2255     0.1773
      5  C5       -28.6090  -30.6360  -40.0510 C.3  2255  SIA2255     0.1552
      6  C6       -29.2330  -31.7550  -40.9410 C.3  2255  SIA2255     0.1710
      7  C7       -30.1220  -32.7420  -40.1300 C.3  2255  SIA2255     0.2134
      8  C8       -31.5970  -32.6800  -40.6350 C.3  2255  SIA2255     0.2173
      9  C9       -31.8880  -33.6210  -41.8240 C.3  2255  SIA2255     0.2175
     10  C10      -30.2050  -30.2730  -38.2820 C.2  2255  SIA2255     0.2420
     11  C11      -29.6680  -29.6180  -37.0220 C.3  2255  SIA2255     0.0964
     12  N5       -29.6690  -29.8700  -39.4230 N.am 2255  SIA2255    -0.2020
     13  O1A      -28.5190  -29.9500  -43.9050 O.2  2255  SIA2255    -0.2430
     14  O1B      -28.6440  -32.0340  -44.5970 O.3  2255  SIA2255    -0.2430
     15  O4       -27.0080  -28.7870  -40.0400 O.3  2255  SIA2255    -0.2211
     16  O6       -28.1880  -32.4740  -41.6760 O.3  2255  SIA2255    -0.3429
     17  O7       -29.6130  -34.0710  -40.2100 O.3  2255  SIA2255    -0.2176
     18  O8       -32.5120  -32.9620  -39.5830 O.3  2255  SIA2255    -0.2175
     19  O9       -31.8470  -34.9900  -41.4200 O.3  2255  SIA2255    -0.2175
     20  O10      -31.0850  -31.1350  -38.2180 O.2  2255  SIA2255    -0.2733
@<TRIPOS>BOND
     1    14     1   ar
     2    13     1   ar
     3     1     2    1
     4     2     3    1
     5     2    16    1
     6     9    19    1
     7     9     8    1
     8     3     4    1
     9    16     6    1
    10     6     7    1
    11     6     5    1
    12     4     5    1
    13     4    15    1
    14     8     7    1
    15     8    18    1
    16    17     7    1
    17     5    12    1
    18    12    10   am
    19    10    20    2
    20    10    11    1
